
     RDKit          3D

  6  5  0  0  0  0  0  0  0  0999 V2000
   -1.0574   -1.1660    0.5394 N   0  0  0  0  0  0  0  0  0  0  0  0
   -0.1934   -0.3245   -0.2234 C   0  0  2  0  0  0  0  0  0  0  0  0
    1.1626   -0.2816    0.3454 C   0  0  0  0  0  0  0  0  0  0  0  0
    1.4050   -0.9567    1.3905 O   0  0  0  0  0  0  0  0  0  0  0  0
   -0.7225    1.0960   -0.3605 C   0  0  0  0  0  0  0  0  0  0  0  0
    2.1694    0.4628   -0.2171 O   0  0  0  0  0  0  0  0  0  0  0  0
  1  2  1  0
  2  3  1  0
  2  5  1  1
  3  4  2  0
  3  6  1  0
M  END
>  <model_pdb_id>  (1) 
?

>  <atom_annot_atom_name>  (1) 
N CA C O CB OXT

>  <atom_annot_used_atom_mask>  (1) 
True True True True True True

$$$$
