
     RDKit          3D

 12 11  0  0  0  0  0  0  0  0999 V2000
   -3.1625   -1.2727   -0.8645 N   0  0  0  0  0  0  0  0  0  0  0  0
   -2.5744   -0.3144    0.0321 C   0  0  2  0  0  0  0  0  0  0  0  0
   -3.2495    0.9963   -0.1669 C   0  0  0  0  0  0  0  0  0  0  0  0
   -4.1810    1.1326   -1.0176 O   0  0  0  0  0  0  0  0  0  0  0  0
   -1.1060   -0.0943   -0.2079 C   0  0  0  0  0  0  0  0  0  0  0  0
   -0.2710   -1.3122   -0.0581 C   0  0  0  0  0  0  0  0  0  0  0  0
    1.1676   -0.9288   -0.3309 C   0  0  0  0  0  0  0  0  0  0  0  0
    1.6494    0.0750    0.5917 N   0  0  0  0  0  0  0  0  0  0  0  0
    2.9821    0.5225    0.4333 C   0  0  0  0  0  0  0  0  0  0  0  0
    3.4766    1.5214    1.3439 N   0  0  0  0  0  0  0  0  0  0  0  0
    3.7195    0.0451   -0.4983 N   0  0  0  0  0  0  0  0  0  0  0  0
   -2.9112    2.1364    0.5520 O   0  0  0  0  0  0  0  0  0  0  0  0
  2  1  1  6
  2  3  1  0
  2  5  1  0
  3  4  2  0
  3 12  1  0
  5  6  1  0
  6  7  1  0
  7  8  1  0
  8  9  1  0
  9 10  1  0
  9 11  2  0
M  CHG  1  11   1
M  END
>  <model_pdb_id>  (1) 
?

>  <atom_annot_atom_name>  (1) 
N CA C O CB CG CD NE CZ NH1 NH2 OXT

>  <atom_annot_used_atom_mask>  (1) 
True True True True True True True True True True True True

$$$$
