
     RDKit          3D

  9  8  0  0  0  0  0  0  0  0999 V2000
   -1.1625   -1.4707   -0.8041 N   0  0  0  0  0  0  0  0  0  0  0  0
   -0.8735   -0.6293    0.3114 C   0  0  2  0  0  0  0  0  0  0  0  0
   -1.5762    0.6735    0.2155 C   0  0  0  0  0  0  0  0  0  0  0  0
   -2.3055    0.8791   -0.7799 O   0  0  0  0  0  0  0  0  0  0  0  0
    0.5904   -0.4477    0.5891 C   0  0  0  0  0  0  0  0  0  0  0  0
    1.3409    0.1504   -0.5183 C   0  0  0  0  0  0  0  0  0  0  0  0
    0.8457    0.4938   -1.6138 O   0  0  0  0  0  0  0  0  0  0  0  0
    2.7377    0.3573   -0.3374 N   0  0  0  0  0  0  0  0  0  0  0  0
   -1.4065    1.6144    1.2200 O   0  0  0  0  0  0  0  0  0  0  0  0
  2  1  1  6
  2  3  1  0
  2  5  1  0
  3  4  2  0
  3  9  1  0
  5  6  1  0
  6  7  2  0
  6  8  1  0
M  END
>  <model_pdb_id>  (1) 
?

>  <atom_annot_atom_name>  (1) 
N CA C O CB CG OD1 ND2 OXT

>  <atom_annot_used_atom_mask>  (1) 
True True True True True True True True True

$$$$
