
     RDKit          3D

  9  8  0  0  0  0  0  0  0  0999 V2000
   -0.2955    0.4164   -1.5844 N   0  0  0  0  0  0  0  0  0  0  0  0
   -0.3056   -0.4068   -0.3888 C   0  0  2  0  0  0  0  0  0  0  0  0
   -1.7238   -0.4988    0.0546 C   0  0  0  0  0  0  0  0  0  0  0  0
   -2.6727    0.0654   -0.5558 O   0  0  0  0  0  0  0  0  0  0  0  0
    0.4695    0.2052    0.7371 C   0  0  0  0  0  0  0  0  0  0  0  0
    1.8906    0.4326    0.4312 C   0  0  0  0  0  0  0  0  0  0  0  0
    2.5986    0.9451    1.3366 O   0  0  0  0  0  0  0  0  0  0  0  0
    2.5051    0.1307   -0.7615 O   0  0  0  0  0  0  0  0  0  0  0  0
   -2.0971   -1.2294    1.1949 O   0  0  0  0  0  0  0  0  0  0  0  0
  2  1  1  6
  2  3  1  0
  2  5  1  0
  3  4  2  0
  3  9  1  0
  5  6  1  0
  6  7  2  0
  6  8  1  0
M  END
>  <model_pdb_id>  (1) 
?

>  <atom_annot_atom_name>  (1) 
N CA C O CB CG OD1 OD2 OXT

>  <atom_annot_used_atom_mask>  (1) 
True True True True True True True True True

$$$$
