
     RDKit          3D

  7  6  0  0  0  0  0  0  0  0999 V2000
    0.0960   -0.1702   -1.6393 N   0  0  0  0  0  0  0  0  0  0  0  0
    0.4222    0.6211   -0.5041 C   0  0  2  0  0  0  0  0  0  0  0  0
    1.2432   -0.1443    0.4634 C   0  0  0  0  0  0  0  0  0  0  0  0
    1.5391   -1.3180    0.1974 O   0  0  0  0  0  0  0  0  0  0  0  0
   -0.8879    1.0104    0.1785 C   0  0  0  0  0  0  0  0  0  0  0  0
   -1.7891   -0.4552    0.6927 S   0  0  0  0  0  0  0  0  0  0  0  0
    1.6511    0.4686    1.6238 O   0  0  0  0  0  0  0  0  0  0  0  0
  2  1  1  6
  2  3  1  0
  2  5  1  0
  3  4  2  0
  3  7  1  0
  5  6  1  0
M  END
>  <model_pdb_id>  (1) 
?

>  <atom_annot_atom_name>  (1) 
N CA C O CB SG OXT

>  <atom_annot_used_atom_mask>  (1) 
True True True True True True True

$$$$
