
     RDKit          3D

 10  9  0  0  0  0  0  0  0  0999 V2000
    0.2888   -0.2874   -1.5444 N   0  0  0  0  0  0  0  0  0  0  0  0
    0.9415    0.3950   -0.4860 C   0  0  2  0  0  0  0  0  0  0  0  0
    2.4149    0.1681   -0.5210 C   0  0  0  0  0  0  0  0  0  0  0  0
    2.9696   -0.5411   -1.3898 O   0  0  0  0  0  0  0  0  0  0  0  0
    0.4158    0.0168    0.8680 C   0  0  0  0  0  0  0  0  0  0  0  0
   -1.0349    0.2934    1.0928 C   0  0  0  0  0  0  0  0  0  0  0  0
   -1.9264   -0.4722    0.2296 C   0  0  0  0  0  0  0  0  0  0  0  0
   -1.5532   -1.5214   -0.3325 O   0  0  0  0  0  0  0  0  0  0  0  0
   -3.2779   -0.0231    0.0125 N   0  0  0  0  0  0  0  0  0  0  0  0
    3.2028    0.7652    0.4457 O   0  0  0  0  0  0  0  0  0  0  0  0
  2  1  1  6
  2  3  1  0
  2  5  1  0
  3  4  2  0
  3 10  1  0
  5  6  1  0
  6  7  1  0
  7  8  2  0
  7  9  1  0
M  END
>  <model_pdb_id>  (1) 
?

>  <atom_annot_atom_name>  (1) 
N CA C O CB CG CD OE1 NE2 OXT

>  <atom_annot_used_atom_mask>  (1) 
True True True True True True True True True True

$$$$
