
     RDKit          3D

 10  9  0  0  0  0  0  0  0  0999 V2000
   -1.2967    1.6885   -0.0673 N   0  0  0  0  0  0  0  0  0  0  0  0
   -1.1708    0.3026   -0.3723 C   0  0  2  0  0  0  0  0  0  0  0  0
   -2.3696   -0.4157    0.1152 C   0  0  0  0  0  0  0  0  0  0  0  0
   -3.2803    0.2194    0.7052 O   0  0  0  0  0  0  0  0  0  0  0  0
    0.1068   -0.2985    0.2217 C   0  0  0  0  0  0  0  0  0  0  0  0
    1.3189    0.4414   -0.3581 C   0  0  0  0  0  0  0  0  0  0  0  0
    2.5602   -0.1354    0.2148 C   0  0  0  0  0  0  0  0  0  0  0  0
    2.9332    0.1893    1.3632 O   0  0  0  0  0  0  0  0  0  0  0  0
    3.3083   -1.0302   -0.5118 O   0  0  0  0  0  0  0  0  0  0  0  0
   -2.5452   -1.7818   -0.0486 O   0  0  0  0  0  0  0  0  0  0  0  0
  2  1  1  1
  2  3  1  0
  2  5  1  0
  3  4  2  0
  3 10  1  0
  5  6  1  0
  6  7  1  0
  7  8  2  0
  7  9  1  0
M  END
>  <model_pdb_id>  (1) 
?

>  <atom_annot_atom_name>  (1) 
N CA C O CB CG CD OE1 OE2 OXT

>  <atom_annot_used_atom_mask>  (1) 
True True True True True True True True True True

$$$$
