
     RDKit          3D

  5  4  0  0  0  0  0  0  0  0999 V2000
   -1.3297    0.0448    0.8344 N   0  0  0  0  0  0  0  0  0  0  0  0
   -0.5172   -0.2583   -0.3115 C   0  0  0  0  0  0  0  0  0  0  0  0
    0.8966   -0.0728    0.0785 C   0  0  0  0  0  0  0  0  0  0  0  0
    1.2202    0.2827    1.2147 O   0  0  0  0  0  0  0  0  0  0  0  0
    1.8604   -0.3249   -0.9213 O   0  0  0  0  0  0  0  0  0  0  0  0
  1  2  1  0
  2  3  1  0
  3  4  2  0
  3  5  1  0
M  END
>  <model_pdb_id>  (1) 
?

>  <atom_annot_atom_name>  (1) 
N CA C O OXT

>  <atom_annot_used_atom_mask>  (1) 
True True True True True

$$$$
