
     RDKit          3D

 11 11  0  0  0  0  0  0  0  0999 V2000
   -1.2045   -1.3673    0.5475 N   0  0  0  0  0  0  0  0  0  0  0  0
   -1.2459    0.0544    0.5010 C   0  0  2  0  0  0  0  0  0  0  0  0
   -2.6418    0.4978    0.2736 C   0  0  0  0  0  0  0  0  0  0  0  0
   -3.5477   -0.3642    0.1583 O   0  0  0  0  0  0  0  0  0  0  0  0
   -0.3601    0.5946   -0.6237 C   0  0  0  0  0  0  0  0  0  0  0  0
    1.0203    0.1460   -0.3490 C   0  0  0  0  0  0  0  0  0  0  0  0
    1.4883   -0.5959    0.6761 N   0  0  0  0  0  0  0  0  0  0  0  0
    2.0908    0.4428   -1.1574 C   0  0  0  0  0  0  0  0  0  0  0  0
    2.8027   -0.7458    0.4967 C   0  0  0  0  0  0  0  0  0  0  0  0
    3.1841   -0.1218   -0.6110 N   0  0  0  0  0  0  0  0  0  0  0  0
   -2.9698    1.8626    0.1847 O   0  0  0  0  0  0  0  0  0  0  0  0
  2  1  1  6
  2  3  1  0
  2  5  1  0
  3  4  2  0
  3 11  1  0
  5  6  1  0
  6  7  1  0
  6  8  2  0
  7  9  2  0
  8 10  1  0
  9 10  1  0
M  CHG  1   7   1
M  END
>  <model_pdb_id>  (1) 
?

>  <atom_annot_atom_name>  (1) 
N CA C O CB CG ND1 CD2 CE1 NE2 OXT

>  <atom_annot_used_atom_mask>  (1) 
True True True True True True True True True True True

$$$$
