
     RDKit          3D

  9  8  0  0  0  0  0  0  0  0999 V2000
   -1.3014    1.0294    1.1176 N   0  0  0  0  0  0  0  0  0  0  0  0
   -1.0596    0.1689   -0.0275 C   0  0  2  0  0  0  0  0  0  0  0  0
   -1.3390   -1.2535    0.2903 C   0  0  0  0  0  0  0  0  0  0  0  0
   -1.7457   -1.6307    1.4283 O   0  0  0  0  0  0  0  0  0  0  0  0
    0.2555    0.3837   -0.6669 C   0  0  2  0  0  0  0  0  0  0  0  0
    1.4555    0.1720    0.1702 C   0  0  0  0  0  0  0  0  0  0  0  0
    0.2988    1.8327   -1.1640 C   0  0  0  0  0  0  0  0  0  0  0  0
    1.6230   -1.2065    0.7408 C   0  0  0  0  0  0  0  0  0  0  0  0
   -1.1589   -2.2342   -0.6732 O   0  0  0  0  0  0  0  0  0  0  0  0
  2  1  1  1
  2  3  1  0
  2  5  1  0
  3  4  2  0
  3  9  1  0
  5  6  1  0
  5  7  1  1
  6  8  1  0
M  END
>  <model_pdb_id>  (1) 
?

>  <atom_annot_atom_name>  (1) 
N CA C O CB CG1 CG2 CD1 OXT

>  <atom_annot_used_atom_mask>  (1) 
True True True True True True True True True

$$$$
