
     RDKit          3D

  9  8  0  0  0  0  0  0  0  0999 V2000
    1.6182   -1.9645   -0.9681 N   0  0  0  0  0  0  0  0  0  0  0  0
    1.1770   -0.6303   -0.5526 C   0  0  2  0  0  0  0  0  0  0  0  0
    2.0994   -0.1067    0.4532 C   0  0  0  0  0  0  0  0  0  0  0  0
    3.0763   -0.7966    0.8343 O   0  0  0  0  0  0  0  0  0  0  0  0
   -0.2268   -0.7645   -0.0695 C   0  0  0  0  0  0  0  0  0  0  0  0
   -0.8504    0.5125    0.4002 C   0  0  0  0  0  0  0  0  0  0  0  0
   -0.8735    1.5167   -0.7331 C   0  0  0  0  0  0  0  0  0  0  0  0
   -2.3205    0.2568    0.7522 C   0  0  0  0  0  0  0  0  0  0  0  0
    1.9407    1.1395    1.0143 O   0  0  0  0  0  0  0  0  0  0  0  0
  2  1  1  1
  2  3  1  0
  2  5  1  0
  3  4  2  0
  3  9  1  0
  5  6  1  0
  6  7  1  0
  6  8  1  0
M  END
>  <model_pdb_id>  (1) 
?

>  <atom_annot_atom_name>  (1) 
N CA C O CB CG CD1 CD2 OXT

>  <atom_annot_used_atom_mask>  (1) 
True True True True True True True True True

$$$$
