
     RDKit          3D

 10  9  0  0  0  0  0  0  0  0999 V2000
   -2.4450   -0.5047   -1.4723 N   0  0  0  0  0  0  0  0  0  0  0  0
   -2.2176   -0.3856   -0.0646 C   0  0  2  0  0  0  0  0  0  0  0  0
   -3.2560    0.4796    0.5222 C   0  0  0  0  0  0  0  0  0  0  0  0
   -3.2356    0.7108    1.7461 O   0  0  0  0  0  0  0  0  0  0  0  0
   -0.8803    0.2534    0.2461 C   0  0  0  0  0  0  0  0  0  0  0  0
    0.2747   -0.5318   -0.3065 C   0  0  0  0  0  0  0  0  0  0  0  0
    1.5397    0.2291    0.0834 C   0  0  0  0  0  0  0  0  0  0  0  0
    2.7780   -0.4731   -0.4232 C   0  0  0  0  0  0  0  0  0  0  0  0
    3.9166    0.3272   -0.0014 N   0  0  0  0  0  0  0  0  0  0  0  0
   -4.2365    1.0266   -0.2673 O   0  0  0  0  0  0  0  0  0  0  0  0
  2  1  1  6
  2  3  1  0
  2  5  1  0
  3  4  2  0
  3 10  1  0
  5  6  1  0
  6  7  1  0
  7  8  1  0
  8  9  1  0
M  CHG  1   9   1
M  END
>  <model_pdb_id>  (1) 
?

>  <atom_annot_atom_name>  (1) 
N CA C O CB CG CD CE NZ OXT

>  <atom_annot_used_atom_mask>  (1) 
True True True True True True True True True True

$$$$
