
     RDKit          3D

  9  8  0  0  0  0  0  0  0  0999 V2000
   -1.4417   -1.7615    1.4286 N   0  0  0  0  0  0  0  0  0  0  0  0
   -1.2227   -0.4640    0.7827 C   0  0  2  0  0  0  0  0  0  0  0  0
   -2.3526   -0.1265   -0.1028 C   0  0  0  0  0  0  0  0  0  0  0  0
   -3.2390   -1.0126   -0.2982 O   0  0  0  0  0  0  0  0  0  0  0  0
    0.1165   -0.4960    0.0806 C   0  0  0  0  0  0  0  0  0  0  0  0
    0.3770    0.8081   -0.5875 C   0  0  0  0  0  0  0  0  0  0  0  0
    1.9943    0.8404   -1.4247 S   0  0  0  0  0  0  0  0  0  0  0  0
    3.2504    0.7399   -0.0977 C   0  0  0  0  0  0  0  0  0  0  0  0
   -2.5426    1.0771   -0.7467 O   0  0  0  0  0  0  0  0  0  0  0  0
  2  1  1  6
  2  3  1  0
  2  5  1  0
  3  4  2  0
  3  9  1  0
  5  6  1  0
  6  7  1  0
  7  8  1  0
M  END
>  <model_pdb_id>  (1) 
?

>  <atom_annot_atom_name>  (1) 
N CA C O CB CG SD CE OXT

>  <atom_annot_used_atom_mask>  (1) 
True True True True True True True True True

$$$$
