
     RDKit          3D

 12 12  0  0  0  0  0  0  0  0999 V2000
   -1.7482   -1.6676   -0.1677 N   0  0  0  0  0  0  0  0  0  0  0  0
   -1.9143   -0.2583    0.0123 C   0  0  2  0  0  0  0  0  0  0  0  0
   -1.9087    0.4891   -1.2557 C   0  0  0  0  0  0  0  0  0  0  0  0
   -1.7669   -0.1312   -2.3373 O   0  0  0  0  0  0  0  0  0  0  0  0
   -0.9571    0.3361    1.0096 C   0  0  0  0  0  0  0  0  0  0  0  0
    0.4556    0.1658    0.6553 C   0  0  0  0  0  0  0  0  0  0  0  0
    1.2066   -0.9241    1.0475 C   0  0  0  0  0  0  0  0  0  0  0  0
    1.1161    1.1118   -0.1061 C   0  0  0  0  0  0  0  0  0  0  0  0
    2.5276   -1.0762    0.7121 C   0  0  0  0  0  0  0  0  0  0  0  0
    2.4562    0.9753   -0.4568 C   0  0  0  0  0  0  0  0  0  0  0  0
    3.1689   -0.1227   -0.0475 C   0  0  0  0  0  0  0  0  0  0  0  0
   -2.0544    1.8651   -1.3170 O   0  0  0  0  0  0  0  0  0  0  0  0
  2  1  1  6
  2  3  1  0
  2  5  1  0
  3  4  2  0
  3 12  1  0
  5  6  1  0
  6  7  2  0
  6  8  1  0
  7  9  1  0
  8 10  2  0
  9 11  2  0
 10 11  1  0
M  END
>  <model_pdb_id>  (1) 
?

>  <atom_annot_atom_name>  (1) 
N CA C O CB CG CD1 CD2 CE1 CE2 CZ OXT

>  <atom_annot_used_atom_mask>  (1) 
True True True True True True True True True True True True

$$$$
