
     RDKit          3D

  8  8  0  0  0  0  0  0  0  0999 V2000
    0.1863   -1.1306    0.1966 N   0  0  0  0  0  0  0  0  0  0  0  0
    0.4982    0.0414   -0.5764 C   0  0  2  0  0  0  0  0  0  0  0  0
    1.8694    0.5414   -0.3199 C   0  0  0  0  0  0  0  0  0  0  0  0
    2.3646    1.5335   -0.8650 O   0  0  0  0  0  0  0  0  0  0  0  0
   -0.5629    1.0262   -0.1094 C   0  0  0  0  0  0  0  0  0  0  0  0
   -1.7862    0.1188   -0.2407 C   0  0  0  0  0  0  0  0  0  0  0  0
   -1.2287   -1.1187    0.4684 C   0  0  0  0  0  0  0  0  0  0  0  0
    2.6388   -0.1601    0.5959 O   0  0  0  0  0  0  0  0  0  0  0  0
  1  2  1  0
  1  7  1  0
  2  3  1  1
  2  5  1  0
  3  4  2  0
  3  8  1  0
  5  6  1  0
  6  7  1  0
M  END
>  <model_pdb_id>  (1) 
?

>  <atom_annot_atom_name>  (1) 
N CA C O CB CG CD OXT

>  <atom_annot_used_atom_mask>  (1) 
True True True True True True True True

$$$$
