
     RDKit          3D

  7  6  0  0  0  0  0  0  0  0999 V2000
   -0.6715   -0.9751    1.1419 N   0  0  0  0  0  0  0  0  0  0  0  0
   -0.0583   -0.6689   -0.1113 C   0  0  2  0  0  0  0  0  0  0  0  0
    1.3433   -0.2169    0.0191 C   0  0  0  0  0  0  0  0  0  0  0  0
    2.0283    0.0926   -0.9854 O   0  0  0  0  0  0  0  0  0  0  0  0
   -0.8879    0.3498   -0.9012 C   0  0  0  0  0  0  0  0  0  0  0  0
   -1.0025    1.5236   -0.1640 O   0  0  0  0  0  0  0  0  0  0  0  0
    1.9362   -0.1245    1.2660 O   0  0  0  0  0  0  0  0  0  0  0  0
  2  1  1  1
  2  3  1  0
  2  5  1  0
  3  4  2  0
  3  7  1  0
  5  6  1  0
M  END
>  <model_pdb_id>  (1) 
?

>  <atom_annot_atom_name>  (1) 
N CA C O CB OG OXT

>  <atom_annot_used_atom_mask>  (1) 
True True True True True True True

$$$$
