
     RDKit          3D

  8  7  0  0  0  0  0  0  0  0999 V2000
    0.8514   -0.3887    1.6585 N   0  0  0  0  0  0  0  0  0  0  0  0
    0.4278   -0.7031    0.3106 C   0  0  2  0  0  0  0  0  0  0  0  0
    1.4738   -0.3701   -0.6388 C   0  0  0  0  0  0  0  0  0  0  0  0
    2.5504    0.1183   -0.2082 O   0  0  0  0  0  0  0  0  0  0  0  0
   -0.9213   -0.1449    0.0193 C   0  0  2  0  0  0  0  0  0  0  0  0
   -1.3024   -0.4610   -1.2782 O   0  0  0  0  0  0  0  0  0  0  0  0
   -1.0727    1.3169    0.2189 C   0  0  0  0  0  0  0  0  0  0  0  0
    1.4035   -0.5413   -2.0139 O   0  0  0  0  0  0  0  0  0  0  0  0
  2  1  1  1
  2  3  1  0
  2  5  1  0
  3  4  2  0
  3  8  1  0
  5  6  1  0
  5  7  1  6
M  END
>  <model_pdb_id>  (1) 
?

>  <atom_annot_atom_name>  (1) 
N CA C O CB OG1 CG2 OXT

>  <atom_annot_used_atom_mask>  (1) 
True True True True True True True True

$$$$
