
     RDKit          3D

 15 16  0  0  0  0  0  0  0  0999 V2000
   -2.1905   -0.1708    1.9460 N   0  0  0  0  0  0  0  0  0  0  0  0
   -2.0571    0.4821    0.6721 C   0  0  2  0  0  0  0  0  0  0  0  0
   -3.4079    0.8290    0.1838 C   0  0  0  0  0  0  0  0  0  0  0  0
   -4.4162    0.5760    0.8544 O   0  0  0  0  0  0  0  0  0  0  0  0
   -1.4028   -0.3768   -0.3696 C   0  0  0  0  0  0  0  0  0  0  0  0
   -0.0655   -0.8256   -0.0679 C   0  0  0  0  0  0  0  0  0  0  0  0
    0.3267   -2.0773    0.3457 C   0  0  0  0  0  0  0  0  0  0  0  0
    1.0854   -0.0777   -0.1352 C   0  0  0  0  0  0  0  0  0  0  0  0
    1.6557   -2.0643    0.5145 N   0  0  0  0  0  0  0  0  0  0  0  0
    2.1751   -0.8630    0.2339 C   0  0  0  0  0  0  0  0  0  0  0  0
    1.3309    1.2186   -0.4786 C   0  0  0  0  0  0  0  0  0  0  0  0
    3.4441   -0.3206    0.2418 C   0  0  0  0  0  0  0  0  0  0  0  0
    2.6072    1.7619   -0.4699 C   0  0  0  0  0  0  0  0  0  0  0  0
    3.6871    0.9893   -0.1059 C   0  0  0  0  0  0  0  0  0  0  0  0
   -3.5288    1.4458   -1.0445 O   0  0  0  0  0  0  0  0  0  0  0  0
  2  1  1  1
  2  3  1  0
  2  5  1  0
  3  4  2  0
  3 15  1  0
  5  6  1  0
  6  7  2  0
  6  8  1  0
  7  9  1  0
  8 10  2  0
  8 11  1  0
  9 10  1  0
 10 12  1  0
 11 13  2  0
 12 14  2  0
 13 14  1  0
M  END
>  <model_pdb_id>  (1) 
?

>  <atom_annot_atom_name>  (1) 
N CA C O CB CG CD1 CD2 NE1 CE2 CE3 CZ2 CZ3 CH2 OXT

>  <atom_annot_used_atom_mask>  (1) 
True True True True True True True True True True True True True True True

$$$$
