
     RDKit          3D

 13 13  0  0  0  0  0  0  0  0999 V2000
    1.5253   -1.0671    1.4519 N   0  0  0  0  0  0  0  0  0  0  0  0
    1.8169   -0.6042    0.1339 C   0  0  2  0  0  0  0  0  0  0  0  0
    3.2437   -0.2350    0.0416 C   0  0  0  0  0  0  0  0  0  0  0  0
    3.9653   -0.3638    1.0525 O   0  0  0  0  0  0  0  0  0  0  0  0
    1.0182    0.6073   -0.2695 C   0  0  0  0  0  0  0  0  0  0  0  0
   -0.4307    0.3928   -0.2575 C   0  0  0  0  0  0  0  0  0  0  0  0
   -1.1419   -0.0576   -1.3506 C   0  0  0  0  0  0  0  0  0  0  0  0
   -1.1484    0.6461    0.8937 C   0  0  0  0  0  0  0  0  0  0  0  0
   -2.5199   -0.2422   -1.2773 C   0  0  0  0  0  0  0  0  0  0  0  0
   -2.5151    0.4657    0.9748 C   0  0  0  0  0  0  0  0  0  0  0  0
   -3.2213    0.0154   -0.1205 C   0  0  0  0  0  0  0  0  0  0  0  0
   -4.6037   -0.1664   -0.0360 O   0  0  0  0  0  0  0  0  0  0  0  0
    3.8164    0.2487   -1.1201 O   0  0  0  0  0  0  0  0  0  0  0  0
  2  1  1  1
  2  3  1  0
  2  5  1  0
  3  4  2  0
  3 13  1  0
  5  6  1  0
  6  7  2  0
  6  8  1  0
  7  9  1  0
  8 10  2  0
  9 11  2  0
 10 11  1  0
 11 12  1  0
M  END
>  <model_pdb_id>  (1) 
?

>  <atom_annot_atom_name>  (1) 
N CA C O CB CG CD1 CD2 CE1 CE2 CZ OH OXT

>  <atom_annot_used_atom_mask>  (1) 
True True True True True True True True True True True True True

$$$$
