
     RDKit          3D

  7  6  0  0  0  0  0  0  0  0999 V2000
    0.2565    0.9501    1.3035 N   0  0  0  0  0  0  0  0  0  0  0  0
    0.3105   -0.2216    0.4808 C   0  0  2  0  0  0  0  0  0  0  0  0
    1.6848   -0.3746   -0.0727 C   0  0  0  0  0  0  0  0  0  0  0  0
    2.5894    0.4673    0.2108 O   0  0  0  0  0  0  0  0  0  0  0  0
   -0.6453   -0.0502   -0.6841 C   0  0  0  0  0  0  0  0  0  0  0  0
   -2.0444    0.1396   -0.1534 C   0  0  0  0  0  0  0  0  0  0  0  0
    2.0361   -1.4239   -0.9084 O   0  0  0  0  0  0  0  0  0  0  0  0
  2  1  1  1
  2  3  1  0
  2  5  1  0
  3  4  2  0
  3  7  1  0
  5  6  1  0
M  END
>  <model_pdb_id>  (1) 
?

>  <atom_annot_atom_name>  (1) 
N CA C O CB CG OXT

>  <atom_annot_used_atom_mask>  (1) 
True True True True True True True

$$$$
